========================
Kohana CheatSheet MODULE
========================
Short description: module for quick review of present Kohana classes and their properties/methods
Current version: 0.2
Demo: http://ko3.kupreev.com/cs
Author: Alexander Kupreev
Official site: http://kupreev.com/
Email: alexander dot kupreev at gmail dot com

============
REQUIREMENTS
============
1. PHP framework Kohana 3.+
2. Kohana Userguide Module activated.

============
INSTALLATION
============

1. Unpack module folder in <Kohana PATH>/modules/ dir.
2. Add to file <Kohana PATH>/application/bootstrap.php into array parameter of Kohana::modules() entry 
	'cheatsheet' => MODPATH.'cheatsheet',

================
WORK WITH MODULE
================

Browse http://<Kohana baseurl>/cs

Click on a property/method name to see its parameters and description (if exist). Click one more time to hide block. 

You can resize page to change text size and number of columns in the browser window. 

You can set in module config (<Kohana PATH>/modules/cheatsheet/config/cs.php):
1. some classes that should not be included in the sheet (their names should be lowercase!) 
2. should cache be turned on (TRUE or FALSE) -- I recommend set to TRUE, cache is on real data, not expiration time 

=====
NOTES
=====

In the current version module does not support i18n ≈ works only in English.

Module was tested in Firefox 3.5, Opera 10 browsers.

=========================
KNOWN ISSUES AND FEATURES
=========================

Not known yet

=========
CHANGELOG
=========

==================
кернохяэ хглемемхи
==================

From v. 0.1
fixed bugs:
- code in param/method desription goes outside of a block 

added features:
- data cache
- a few design modifications 

=========
USED CODE
=========

1. Module uses classes of Kohana Userguide Module, and in some places partially modified code from Kohana Userguide Module (it is underlined in methods comments).

2. Module uses jQuery (jQuery JavaScript Library) v1.3.2
	http://jquery.com/
	Copyright (c) 2009 John Resig
	Dual licensed under the MIT and GPL licenses (http://docs.jquery.com/License)
	
3. Module uses Columnizer jQuery Plugin v1.4.0
	http://welcome.totheinter.net/columnizer-jquery-plugin/
	Copyright (c) Adam Wulf
	Licensed under a Creative Commons Attribution 3.0 United States License (http://creativecommons.org/licenses/by/3.0/us/)